<top><routes><vehicle id="0"><depart_info time="36360.42621752324" soc="95" payload="425.19000000000005" /><route><stop node="0" SOC_increment="0.0" wait_after_service="0.0" /><stop node="5" SOC_increment="0" wait_after_service="0.0" /><stop node="16" SOC_increment="0" wait_after_service="0.0" /><stop node="3" SOC_increment="0" wait_after_service="0.0" /><stop node="6" SOC_increment="0" wait_after_service="0.0" /><stop node="1" SOC_increment="0" wait_after_service="0.0" /><stop node="20" SOC_increment="0" wait_after_service="0.0" /><stop node="10" SOC_increment="0" wait_after_service="0.0" /><stop node="12" SOC_increment="0" wait_after_service="0.0" /><stop node="15" SOC_increment="0" wait_after_service="0.0" /><stop node="0" SOC_increment="0.0" wait_after_service="0.0" /></route></vehicle><vehicle id="1"><depart_info time="38906.60089050384" soc="95" payload="541.69" /><route><stop node="0" SOC_increment="0.0" wait_after_service="0.0" /><stop node="8" SOC_increment="0" wait_after_service="0.0" /><stop node="9" SOC_increment="0" wait_after_service="0.0" /><stop node="14" SOC_increment="0" wait_after_service="0.0" /><stop node="21" SOC_increment="24.284833289619105" wait_after_service="0.0" /><stop node="11" SOC_increment="0" wait_after_service="0.0" /><stop node="18" SOC_increment="0" wait_after_service="0.0" /><stop node="7" SOC_increment="0" wait_after_service="0.0" /><stop node="19" SOC_increment="0" wait_after_service="0.0" /><stop node="17" SOC_increment="0" wait_after_service="0.0" /><stop node="13" SOC_increment="0" wait_after_service="0.0" /><stop node="4" SOC_increment="0" wait_after_service="0.0" /><stop node="2" SOC_increment="0" wait_after_service="0.0" /><stop node="0" SOC_increment="0.0" wait_after_service="0.0" /></route></vehicle></routes><routes><vehicle id="0"><depart_info time="36095.73924734669" soc="95" payload="639.64" /><route><stop node="0" SOC_increment="0.0" wait_after_service="0.0" /><stop node="5" SOC_increment="0" wait_after_service="0.0" /><stop node="16" SOC_increment="0" wait_after_service="0.0" /><stop node="3" SOC_increment="0" wait_after_service="0.0" /><stop node="6" SOC_increment="0" wait_after_service="0.0" /><stop node="1" SOC_increment="0" wait_after_service="0.0" /><stop node="10" SOC_increment="0" wait_after_service="0.0" /><stop node="21" SOC_increment="24.374934115332067" wait_after_service="0.0" /><stop node="14" SOC_increment="0" wait_after_service="0.0" /><stop node="8" SOC_increment="0" wait_after_service="0.0" /><stop node="15" SOC_increment="0" wait_after_service="0.0" /><stop node="2" SOC_increment="0" wait_after_service="0.0" /><stop node="12" SOC_increment="0" wait_after_service="0.0" /><stop node="11" SOC_increment="0" wait_after_service="0.0" /><stop node="18" SOC_increment="0" wait_after_service="0.0" /><stop node="19" SOC_increment="0" wait_after_service="0.0" /><stop node="0" SOC_increment="0.0" wait_after_service="0.0" /></route></vehicle><vehicle id="1"><depart_info time="42788.57027208604" soc="95" payload="327.23999999999995" /><route><stop node="0" SOC_increment="0.0" wait_after_service="0.0" /><stop node="7" SOC_increment="0" wait_after_service="0.0" /><stop node="17" SOC_increment="0" wait_after_service="0.0" /><stop node="13" SOC_increment="0" wait_after_service="0.0" /><stop node="20" SOC_increment="0" wait_after_service="0.0" /><stop node="4" SOC_increment="0" wait_after_service="0.0" /><stop node="9" SOC_increment="0" wait_after_service="0.0" /><stop node="0" SOC_increment="0.0" wait_after_service="0.0" /></route></vehicle></routes><routes><vehicle id="0"><depart_info time="35073.04381584108" soc="95" payload="466.9599999999999" /><route><stop node="0" SOC_increment="0.0" wait_after_service="0.0" /><stop node="5" SOC_increment="0" wait_after_service="0.0" /><stop node="16" SOC_increment="0" wait_after_service="0.0" /><stop node="6" SOC_increment="0" wait_after_service="0.0" /><stop node="3" SOC_increment="0" wait_after_service="0.0" /><stop node="20" SOC_increment="0" wait_after_service="0.0" /><stop node="1" SOC_increment="0" wait_after_service="0.0" /><stop node="21" SOC_increment="19.98488870314357" wait_after_service="0.0" /><stop node="10" SOC_increment="0" wait_after_service="0.0" /><stop node="14" SOC_increment="0" wait_after_service="0.0" /><stop node="9" SOC_increment="0" wait_after_service="0.0" /><stop node="8" SOC_increment="0" wait_after_service="0.0" /><stop node="2" SOC_increment="0" wait_after_service="0.0" /><stop node="0" SOC_increment="0.0" wait_after_service="0.0" /></route></vehicle><vehicle id="1"><depart_info time="44469.436098500526" soc="95" payload="499.92" /><route><stop node="0" SOC_increment="0.0" wait_after_service="0.0" /><stop node="15" SOC_increment="0" wait_after_service="0.0" /><stop node="12" SOC_increment="0" wait_after_service="0.0" /><stop node="11" SOC_increment="0" wait_after_service="0.0" /><stop node="4" SOC_increment="0" wait_after_service="0.0" /><stop node="13" SOC_increment="0" wait_after_service="0.0" /><stop node="17" SOC_increment="0" wait_after_service="0.0" /><stop node="18" SOC_increment="0" wait_after_service="0.0" /><stop node="7" SOC_increment="0" wait_after_service="0.0" /><stop node="19" SOC_increment="0" wait_after_service="0.0" /><stop node="0" SOC_increment="0.0" wait_after_service="0.0" /></route></vehicle></routes></top>